<?xml version="1.0" encoding="UTF-8"?>

<!-- generated on 2026-02-16T01:35:44.711015+05:00 by Eclipse SUMO netgenerate 1.26.0
<netgenerateConfiguration xmlns:xsi="http://www.w3.org/2001/XMLSchema-instance" xsi:noNamespaceSchemaLocation="http://sumo.dlr.de/xsd/netgenerateConfiguration.xsd">

    <grid_network>
        <grid value="true"/>
        <grid.length value="300"/>
        <grid.x-number value="3"/>
        <grid.y-number value="3"/>
    </grid_network>

    <output>
        <output-file value="v2.net.xml"/>
    </output>

    <building_defaults>
        <default.lanenumber value="3"/>
    </building_defaults>

</netgenerateConfiguration>
-->

<net version="1.20" junctionCornerDetail="5" limitTurnSpeed="5.50" xmlns:xsi="http://www.w3.org/2001/XMLSchema-instance" xsi:noNamespaceSchemaLocation="http://sumo.dlr.de/xsd/net_file.xsd">

    <location netOffset="0.00,0.00" convBoundary="0.00,0.00,600.00,600.00" origBoundary="0.00,0.00,600.00,600.00" projParameter="!"/>

    <edge id=":A0_0" function="internal">
        <lane id=":A0_0_0" index="0" speed="11.12" length="28.38" shape="-8.00,9.60 -6.90,1.90 -3.60,-3.60 1.90,-6.90 9.60,-8.00"/>
        <lane id=":A0_0_1" index="1" speed="10.10" length="23.22" shape="-4.80,9.60 -3.90,3.30 -1.20,-1.20 3.30,-3.90 9.60,-4.80"/>
        <lane id=":A0_0_2" index="2" speed="8.96" length="18.06" shape="-1.60,9.60 -0.90,4.70 1.20,1.20 4.70,-0.90 9.60,-1.60"/>
    </edge>
    <edge id=":A0_3" function="internal">
        <lane id=":A0_3_0" index="0" speed="3.90" length="2.58" shape="9.60,8.00 8.90,8.10 8.40,8.40 8.10,8.90 8.00,9.60"/>
        <lane id=":A0_3_1" index="1" speed="6.08" length="7.74" shape="9.60,4.80 7.50,5.10 6.00,6.00 5.10,7.50 4.80,9.60"/>
        <lane id=":A0_3_2" index="2" speed="7.66" length="12.90" shape="9.60,1.60 6.10,2.10 3.60,3.60 2.10,6.10 1.60,9.60"/>
    </edge>
    <edge id=":A1_0" function="internal">
        <lane id=":A1_0_0" index="0" speed="13.89" length="27.20" shape="-8.00,313.60 -8.00,286.40"/>
        <lane id=":A1_0_1" index="1" speed="13.89" length="27.20" shape="-4.80,313.60 -4.80,286.40"/>
        <lane id=":A1_0_2" index="2" speed="13.89" length="27.20" shape="-1.60,313.60 -1.60,286.40"/>
    </edge>
    <edge id=":A1_3" function="internal">
        <lane id=":A1_3_0" index="0" speed="10.88" length="6.03" shape="-1.60,313.60 -0.89,307.62"/>
        <lane id=":A1_3_1" index="1" speed="10.36" length="5.01" shape="-1.60,313.60 -0.89,308.64"/>
    </edge>
    <edge id=":A1_5" function="internal">
        <lane id=":A1_5_0" index="0" speed="3.65" length="1.44" shape="-1.60,313.60 -0.80,312.40"/>
    </edge>
    <edge id=":A1_15" function="internal">
        <lane id=":A1_15_0" index="0" speed="10.88" length="21.12" shape="-0.89,307.62 -0.65,305.55 2.20,299.80 6.95,296.35 13.60,295.20"/>
        <lane id=":A1_15_1" index="0" speed="10.36" length="19.50" shape="-0.89,308.64 -0.65,306.95 2.20,302.20 6.95,299.35 13.60,298.40"/>
    </edge>
    <edge id=":A1_16" function="internal">
        <lane id=":A1_16_0" index="0" speed="3.65" length="3.23" shape="-0.80,312.40 0.00,312.00 0.80,312.40 1.60,313.60"/>
    </edge>
    <edge id=":A1_6" function="internal">
        <lane id=":A1_6_0" index="0" speed="6.51" length="9.03" shape="13.60,308.00 11.15,308.35 9.40,309.40 8.35,311.15 8.00,313.60"/>
    </edge>
    <edge id=":A1_7" function="internal">
        <lane id=":A1_7_0" index="0" speed="11.36" length="29.67" shape="13.60,304.80 5.55,303.65 -0.20,300.20 -3.65,294.45 -4.80,286.40"/>
        <lane id=":A1_7_1" index="1" speed="10.36" length="24.51" shape="13.60,301.60 6.95,300.65 2.20,297.80 -0.65,293.05 -1.60,286.40"/>
    </edge>
    <edge id=":A1_9" function="internal">
        <lane id=":A1_9_0" index="0" speed="3.65" length="4.67" shape="13.60,301.60 12.40,300.80 12.00,300.00 12.40,299.20 13.60,298.40"/>
    </edge>
    <edge id=":A1_10" function="internal">
        <lane id=":A1_10_0" index="0" speed="6.51" length="9.03" shape="8.00,286.40 8.35,288.85 9.40,290.60 11.15,291.65 13.60,292.00"/>
    </edge>
    <edge id=":A1_11" function="internal">
        <lane id=":A1_11_0" index="0" speed="13.89" length="27.20" shape="8.00,286.40 8.00,313.60"/>
        <lane id=":A1_11_1" index="1" speed="13.89" length="27.20" shape="4.80,286.40 4.80,313.60"/>
        <lane id=":A1_11_2" index="2" speed="13.89" length="27.20" shape="1.60,286.40 1.60,313.60"/>
    </edge>
    <edge id=":A1_14" function="internal">
        <lane id=":A1_14_0" index="0" speed="3.65" length="1.44" shape="1.60,286.40 0.80,287.60"/>
    </edge>
    <edge id=":A1_17" function="internal">
        <lane id=":A1_17_0" index="0" speed="3.65" length="3.23" shape="0.80,287.60 0.00,288.00 -0.80,287.60 -1.60,286.40"/>
    </edge>
    <edge id=":A2_0" function="internal">
        <lane id=":A2_0_0" index="0" speed="11.12" length="28.38" shape="9.60,608.00 1.90,606.90 -3.60,603.60 -6.90,598.10 -8.00,590.40"/>
        <lane id=":A2_0_1" index="1" speed="10.10" length="23.22" shape="9.60,604.80 3.30,603.90 -1.20,601.20 -3.90,596.70 -4.80,590.40"/>
        <lane id=":A2_0_2" index="2" speed="8.96" length="18.06" shape="9.60,601.60 4.70,600.90 1.20,598.80 -0.90,595.30 -1.60,590.40"/>
    </edge>
    <edge id=":A2_3" function="internal">
        <lane id=":A2_3_0" index="0" speed="3.90" length="2.58" shape="8.00,590.40 8.10,591.10 8.40,591.60 8.90,591.90 9.60,592.00"/>
        <lane id=":A2_3_1" index="1" speed="6.08" length="7.74" shape="4.80,590.40 5.10,592.50 6.00,594.00 7.50,594.90 9.60,595.20"/>
        <lane id=":A2_3_2" index="2" speed="7.66" length="12.90" shape="1.60,590.40 2.10,593.90 3.60,596.40 6.10,597.90 9.60,598.40"/>
    </edge>
    <edge id=":B0_0" function="internal">
        <lane id=":B0_0_0" index="0" speed="6.51" length="9.03" shape="292.00,13.60 291.65,11.15 290.60,9.40 288.85,8.35 286.40,8.00"/>
    </edge>
    <edge id=":B0_1" function="internal">
        <lane id=":B0_1_0" index="0" speed="11.36" length="29.67" shape="295.20,13.60 296.35,5.55 299.80,-0.20 305.55,-3.65 313.60,-4.80"/>
        <lane id=":B0_1_1" index="1" speed="10.36" length="24.51" shape="298.40,13.60 299.35,6.95 302.20,2.20 306.95,-0.65 313.60,-1.60"/>
    </edge>
    <edge id=":B0_3" function="internal">
        <lane id=":B0_3_0" index="0" speed="3.65" length="4.67" shape="298.40,13.60 299.20,12.40 300.00,12.00 300.80,12.40 301.60,13.60"/>
    </edge>
    <edge id=":B0_4" function="internal">
        <lane id=":B0_4_0" index="0" speed="6.51" length="9.03" shape="313.60,8.00 311.15,8.35 309.40,9.40 308.35,11.15 308.00,13.60"/>
    </edge>
    <edge id=":B0_5" function="internal">
        <lane id=":B0_5_0" index="0" speed="13.89" length="27.20" shape="313.60,8.00 286.40,8.00"/>
        <lane id=":B0_5_1" index="1" speed="13.89" length="27.20" shape="313.60,4.80 286.40,4.80"/>
        <lane id=":B0_5_2" index="2" speed="13.89" length="27.20" shape="313.60,1.60 286.40,1.60"/>
    </edge>
    <edge id=":B0_8" function="internal">
        <lane id=":B0_8_0" index="0" speed="3.65" length="1.44" shape="313.60,1.60 312.40,0.80"/>
    </edge>
    <edge id=":B0_15" function="internal">
        <lane id=":B0_15_0" index="0" speed="3.65" length="3.23" shape="312.40,0.80 312.00,0.00 312.40,-0.80 313.60,-1.60"/>
    </edge>
    <edge id=":B0_9" function="internal">
        <lane id=":B0_9_0" index="0" speed="13.89" length="27.20" shape="286.40,-8.00 313.60,-8.00"/>
        <lane id=":B0_9_1" index="1" speed="13.89" length="27.20" shape="286.40,-4.80 313.60,-4.80"/>
        <lane id=":B0_9_2" index="2" speed="13.89" length="27.20" shape="286.40,-1.60 313.60,-1.60"/>
    </edge>
    <edge id=":B0_12" function="internal">
        <lane id=":B0_12_0" index="0" speed="10.88" length="6.03" shape="286.40,-1.60 292.38,-0.89"/>
        <lane id=":B0_12_1" index="1" speed="10.36" length="5.01" shape="286.40,-1.60 291.36,-0.89"/>
    </edge>
    <edge id=":B0_14" function="internal">
        <lane id=":B0_14_0" index="0" speed="3.65" length="1.44" shape="286.40,-1.60 287.60,-0.80"/>
    </edge>
    <edge id=":B0_16" function="internal">
        <lane id=":B0_16_0" index="0" speed="10.88" length="21.12" shape="292.38,-0.89 294.45,-0.65 300.20,2.20 303.65,6.95 304.80,13.60"/>
        <lane id=":B0_16_1" index="0" speed="10.36" length="19.50" shape="291.36,-0.89 293.05,-0.65 297.80,2.20 300.65,6.95 301.60,13.60"/>
    </edge>
    <edge id=":B0_17" function="internal">
        <lane id=":B0_17_0" index="0" speed="3.65" length="3.23" shape="287.60,-0.80 288.00,0.00 287.60,0.80 286.40,1.60"/>
    </edge>
    <edge id=":B1_0" function="internal">
        <lane id=":B1_0_0" index="0" speed="6.51" length="9.03" shape="292.00,313.60 291.65,311.15 290.60,309.40 288.85,308.35 286.40,308.00"/>
    </edge>
    <edge id=":B1_1" function="internal">
        <lane id=":B1_1_0" index="0" speed="13.89" length="27.20" shape="292.00,313.60 292.00,286.40"/>
        <lane id=":B1_1_1" index="1" speed="13.89" length="27.20" shape="295.20,313.60 295.20,286.40"/>
        <lane id=":B1_1_2" index="2" speed="13.89" length="27.20" shape="298.40,313.60 298.40,286.40"/>
    </edge>
    <edge id=":B1_4" function="internal">
        <lane id=":B1_4_0" index="0" speed="10.36" length="5.01" shape="298.40,313.60 299.11,308.64"/>
    </edge>
    <edge id=":B1_5" function="internal">
        <lane id=":B1_5_0" index="0" speed="3.65" length="1.44" shape="298.40,313.60 299.20,312.40"/>
    </edge>
    <edge id=":B1_24" function="internal">
        <lane id=":B1_24_0" index="0" speed="10.36" length="19.50" shape="299.11,308.64 299.35,306.95 302.20,302.20 306.95,299.35 313.60,298.40"/>
    </edge>
    <edge id=":B1_25" function="internal">
        <lane id=":B1_25_0" index="0" speed="3.65" length="3.23" shape="299.20,312.40 300.00,312.00 300.80,312.40 301.60,313.60"/>
    </edge>
    <edge id=":B1_6" function="internal">
        <lane id=":B1_6_0" index="0" speed="6.51" length="9.03" shape="313.60,308.00 311.15,308.35 309.40,309.40 308.35,311.15 308.00,313.60"/>
    </edge>
    <edge id=":B1_7" function="internal">
        <lane id=":B1_7_0" index="0" speed="13.89" length="27.20" shape="313.60,308.00 286.40,308.00"/>
        <lane id=":B1_7_1" index="1" speed="13.89" length="27.20" shape="313.60,304.80 286.40,304.80"/>
        <lane id=":B1_7_2" index="2" speed="13.89" length="27.20" shape="313.60,301.60 286.40,301.60"/>
    </edge>
    <edge id=":B1_10" function="internal">
        <lane id=":B1_10_0" index="0" speed="10.36" length="24.51" shape="313.60,301.60 306.95,300.65 302.20,297.80 299.35,293.05 298.40,286.40"/>
    </edge>
    <edge id=":B1_11" function="internal">
        <lane id=":B1_11_0" index="0" speed="3.65" length="4.67" shape="313.60,301.60 312.40,300.80 312.00,300.00 312.40,299.20 313.60,298.40"/>
    </edge>
    <edge id=":B1_12" function="internal">
        <lane id=":B1_12_0" index="0" speed="6.51" length="9.03" shape="308.00,286.40 308.35,288.85 309.40,290.60 311.15,291.65 313.60,292.00"/>
    </edge>
    <edge id=":B1_13" function="internal">
        <lane id=":B1_13_0" index="0" speed="13.89" length="27.20" shape="308.00,286.40 308.00,313.60"/>
        <lane id=":B1_13_1" index="1" speed="13.89" length="27.20" shape="304.80,286.40 304.80,313.60"/>
        <lane id=":B1_13_2" index="2" speed="13.89" length="27.20" shape="301.60,286.40 301.60,313.60"/>
    </edge>
    <edge id=":B1_16" function="internal">
        <lane id=":B1_16_0" index="0" speed="10.36" length="5.01" shape="301.60,286.40 300.89,291.36"/>
    </edge>
    <edge id=":B1_17" function="internal">
        <lane id=":B1_17_0" index="0" speed="3.65" length="1.44" shape="301.60,286.40 300.80,287.60"/>
    </edge>
    <edge id=":B1_26" function="internal">
        <lane id=":B1_26_0" index="0" speed="10.36" length="19.50" shape="300.89,291.36 300.65,293.05 297.80,297.80 293.05,300.65 286.40,301.60"/>
    </edge>
    <edge id=":B1_27" function="internal">
        <lane id=":B1_27_0" index="0" speed="3.65" length="3.23" shape="300.80,287.60 300.00,288.00 299.20,287.60 298.40,286.40"/>
    </edge>
    <edge id=":B1_18" function="internal">
        <lane id=":B1_18_0" index="0" speed="6.51" length="9.03" shape="286.40,292.00 288.85,291.65 290.60,290.60 291.65,288.85 292.00,286.40"/>
    </edge>
    <edge id=":B1_19" function="internal">
        <lane id=":B1_19_0" index="0" speed="13.89" length="27.20" shape="286.40,292.00 313.60,292.00"/>
        <lane id=":B1_19_1" index="1" speed="13.89" length="27.20" shape="286.40,295.20 313.60,295.20"/>
        <lane id=":B1_19_2" index="2" speed="13.89" length="27.20" shape="286.40,298.40 313.60,298.40"/>
    </edge>
    <edge id=":B1_22" function="internal">
        <lane id=":B1_22_0" index="0" speed="10.36" length="24.51" shape="286.40,298.40 293.05,299.35 297.80,302.20 300.65,306.95 301.60,313.60"/>
    </edge>
    <edge id=":B1_23" function="internal">
        <lane id=":B1_23_0" index="0" speed="3.65" length="4.67" shape="286.40,298.40 287.60,299.20 288.00,300.00 287.60,300.80 286.40,301.60"/>
    </edge>
    <edge id=":B2_0" function="internal">
        <lane id=":B2_0_0" index="0" speed="13.89" length="27.20" shape="313.60,608.00 286.40,608.00"/>
        <lane id=":B2_0_1" index="1" speed="13.89" length="27.20" shape="313.60,604.80 286.40,604.80"/>
        <lane id=":B2_0_2" index="2" speed="13.89" length="27.20" shape="313.60,601.60 286.40,601.60"/>
    </edge>
    <edge id=":B2_3" function="internal">
        <lane id=":B2_3_0" index="0" speed="10.88" length="6.03" shape="313.60,601.60 307.62,600.89"/>
        <lane id=":B2_3_1" index="1" speed="10.36" length="5.01" shape="313.60,601.60 308.64,600.89"/>
    </edge>
    <edge id=":B2_5" function="internal">
        <lane id=":B2_5_0" index="0" speed="3.65" length="1.44" shape="313.60,601.60 312.40,600.80"/>
    </edge>
    <edge id=":B2_15" function="internal">
        <lane id=":B2_15_0" index="0" speed="10.88" length="21.12" shape="307.62,600.89 305.55,600.65 299.80,597.80 296.35,593.05 295.20,586.40"/>
        <lane id=":B2_15_1" index="0" speed="10.36" length="19.50" shape="308.64,600.89 306.95,600.65 302.20,597.80 299.35,593.05 298.40,586.40"/>
    </edge>
    <edge id=":B2_16" function="internal">
        <lane id=":B2_16_0" index="0" speed="3.65" length="3.23" shape="312.40,600.80 312.00,600.00 312.40,599.20 313.60,598.40"/>
    </edge>
    <edge id=":B2_6" function="internal">
        <lane id=":B2_6_0" index="0" speed="6.51" length="9.03" shape="308.00,586.40 308.35,588.85 309.40,590.60 311.15,591.65 313.60,592.00"/>
    </edge>
    <edge id=":B2_7" function="internal">
        <lane id=":B2_7_0" index="0" speed="11.36" length="29.67" shape="304.80,586.40 303.65,594.45 300.20,600.20 294.45,603.65 286.40,604.80"/>
        <lane id=":B2_7_1" index="1" speed="10.36" length="24.51" shape="301.60,586.40 300.65,593.05 297.80,597.80 293.05,600.65 286.40,601.60"/>
    </edge>
    <edge id=":B2_9" function="internal">
        <lane id=":B2_9_0" index="0" speed="3.65" length="4.67" shape="301.60,586.40 300.80,587.60 300.00,588.00 299.20,587.60 298.40,586.40"/>
    </edge>
    <edge id=":B2_10" function="internal">
        <lane id=":B2_10_0" index="0" speed="6.51" length="9.03" shape="286.40,592.00 288.85,591.65 290.60,590.60 291.65,588.85 292.00,586.40"/>
    </edge>
    <edge id=":B2_11" function="internal">
        <lane id=":B2_11_0" index="0" speed="13.89" length="27.20" shape="286.40,592.00 313.60,592.00"/>
        <lane id=":B2_11_1" index="1" speed="13.89" length="27.20" shape="286.40,595.20 313.60,595.20"/>
        <lane id=":B2_11_2" index="2" speed="13.89" length="27.20" shape="286.40,598.40 313.60,598.40"/>
    </edge>
    <edge id=":B2_14" function="internal">
        <lane id=":B2_14_0" index="0" speed="3.65" length="1.44" shape="286.40,598.40 287.60,599.20"/>
    </edge>
    <edge id=":B2_17" function="internal">
        <lane id=":B2_17_0" index="0" speed="3.65" length="3.23" shape="287.60,599.20 288.00,600.00 287.60,600.80 286.40,601.60"/>
    </edge>
    <edge id=":C0_0" function="internal">
        <lane id=":C0_0_0" index="0" speed="3.90" length="2.58" shape="592.00,9.60 591.90,8.90 591.60,8.40 591.10,8.10 590.40,8.00"/>
        <lane id=":C0_0_1" index="1" speed="6.08" length="7.74" shape="595.20,9.60 594.90,7.50 594.00,6.00 592.50,5.10 590.40,4.80"/>
        <lane id=":C0_0_2" index="2" speed="7.66" length="12.90" shape="598.40,9.60 597.90,6.10 596.40,3.60 593.90,2.10 590.40,1.60"/>
    </edge>
    <edge id=":C0_3" function="internal">
        <lane id=":C0_3_0" index="0" speed="11.12" length="28.38" shape="590.40,-8.00 598.10,-6.90 603.60,-3.60 606.90,1.90 608.00,9.60"/>
        <lane id=":C0_3_1" index="1" speed="10.10" length="23.22" shape="590.40,-4.80 596.70,-3.90 601.20,-1.20 603.90,3.30 604.80,9.60"/>
        <lane id=":C0_3_2" index="2" speed="8.96" length="18.06" shape="590.40,-1.60 595.30,-0.90 598.80,1.20 600.90,4.70 601.60,9.60"/>
    </edge>
    <edge id=":C1_0" function="internal">
        <lane id=":C1_0_0" index="0" speed="6.51" length="9.03" shape="592.00,313.60 591.65,311.15 590.60,309.40 588.85,308.35 586.40,308.00"/>
    </edge>
    <edge id=":C1_1" function="internal">
        <lane id=":C1_1_0" index="0" speed="13.89" length="27.20" shape="592.00,313.60 592.00,286.40"/>
        <lane id=":C1_1_1" index="1" speed="13.89" length="27.20" shape="595.20,313.60 595.20,286.40"/>
        <lane id=":C1_1_2" index="2" speed="13.89" length="27.20" shape="598.40,313.60 598.40,286.40"/>
    </edge>
    <edge id=":C1_4" function="internal">
        <lane id=":C1_4_0" index="0" speed="3.65" length="1.44" shape="598.40,313.60 599.20,312.40"/>
    </edge>
    <edge id=":C1_15" function="internal">
        <lane id=":C1_15_0" index="0" speed="3.65" length="3.23" shape="599.20,312.40 600.00,312.00 600.80,312.40 601.60,313.60"/>
    </edge>
    <edge id=":C1_5" function="internal">
        <lane id=":C1_5_0" index="0" speed="13.89" length="27.20" shape="608.00,286.40 608.00,313.60"/>
        <lane id=":C1_5_1" index="1" speed="13.89" length="27.20" shape="604.80,286.40 604.80,313.60"/>
        <lane id=":C1_5_2" index="2" speed="13.89" length="27.20" shape="601.60,286.40 601.60,313.60"/>
    </edge>
    <edge id=":C1_8" function="internal">
        <lane id=":C1_8_0" index="0" speed="10.88" length="6.03" shape="601.60,286.40 600.89,292.38"/>
        <lane id=":C1_8_1" index="1" speed="10.36" length="5.01" shape="601.60,286.40 600.89,291.36"/>
    </edge>
    <edge id=":C1_10" function="internal">
        <lane id=":C1_10_0" index="0" speed="3.65" length="1.44" shape="601.60,286.40 600.80,287.60"/>
    </edge>
    <edge id=":C1_16" function="internal">
        <lane id=":C1_16_0" index="0" speed="10.88" length="21.12" shape="600.89,292.38 600.65,294.45 597.80,300.20 593.05,303.65 586.40,304.80"/>
        <lane id=":C1_16_1" index="0" speed="10.36" length="19.50" shape="600.89,291.36 600.65,293.05 597.80,297.80 593.05,300.65 586.40,301.60"/>
    </edge>
    <edge id=":C1_17" function="internal">
        <lane id=":C1_17_0" index="0" speed="3.65" length="3.23" shape="600.80,287.60 600.00,288.00 599.20,287.60 598.40,286.40"/>
    </edge>
    <edge id=":C1_11" function="internal">
        <lane id=":C1_11_0" index="0" speed="6.51" length="9.03" shape="586.40,292.00 588.85,291.65 590.60,290.60 591.65,288.85 592.00,286.40"/>
    </edge>
    <edge id=":C1_12" function="internal">
        <lane id=":C1_12_0" index="0" speed="11.36" length="29.67" shape="586.40,295.20 594.45,296.35 600.20,299.80 603.65,305.55 604.80,313.60"/>
        <lane id=":C1_12_1" index="1" speed="10.36" length="24.51" shape="586.40,298.40 593.05,299.35 597.80,302.20 600.65,306.95 601.60,313.60"/>
    </edge>
    <edge id=":C1_14" function="internal">
        <lane id=":C1_14_0" index="0" speed="3.65" length="4.67" shape="586.40,298.40 587.60,299.20 588.00,300.00 587.60,300.80 586.40,301.60"/>
    </edge>
    <edge id=":C2_0" function="internal">
        <lane id=":C2_0_0" index="0" speed="11.12" length="28.38" shape="608.00,590.40 606.90,598.10 603.60,603.60 598.10,606.90 590.40,608.00"/>
        <lane id=":C2_0_1" index="1" speed="10.10" length="23.22" shape="604.80,590.40 603.90,596.70 601.20,601.20 596.70,603.90 590.40,604.80"/>
        <lane id=":C2_0_2" index="2" speed="8.96" length="18.06" shape="601.60,590.40 600.90,595.30 598.80,598.80 595.30,600.90 590.40,601.60"/>
    </edge>
    <edge id=":C2_3" function="internal">
        <lane id=":C2_3_0" index="0" speed="3.90" length="2.58" shape="590.40,592.00 591.10,591.90 591.60,591.60 591.90,591.10 592.00,590.40"/>
        <lane id=":C2_3_1" index="1" speed="6.08" length="7.74" shape="590.40,595.20 592.50,594.90 594.00,594.00 594.90,592.50 595.20,590.40"/>
        <lane id=":C2_3_2" index="2" speed="7.66" length="12.90" shape="590.40,598.40 593.90,597.90 596.40,596.40 597.90,593.90 598.40,590.40"/>
    </edge>

    <edge id="A0A1" from="A0" to="A1" priority="-1">
        <lane id="A0A1_0" index="0" speed="13.89" length="276.80" shape="8.00,9.60 8.00,286.40"/>
        <lane id="A0A1_1" index="1" speed="13.89" length="276.80" shape="4.80,9.60 4.80,286.40"/>
        <lane id="A0A1_2" index="2" speed="13.89" length="276.80" shape="1.60,9.60 1.60,286.40"/>
    </edge>
    <edge id="A0B0" from="A0" to="B0" priority="-1">
        <lane id="A0B0_0" index="0" speed="13.89" length="276.80" shape="9.60,-8.00 286.40,-8.00"/>
        <lane id="A0B0_1" index="1" speed="13.89" length="276.80" shape="9.60,-4.80 286.40,-4.80"/>
        <lane id="A0B0_2" index="2" speed="13.89" length="276.80" shape="9.60,-1.60 286.40,-1.60"/>
    </edge>
    <edge id="A1A0" from="A1" to="A0" priority="-1">
        <lane id="A1A0_0" index="0" speed="13.89" length="276.80" shape="-8.00,286.40 -8.00,9.60"/>
        <lane id="A1A0_1" index="1" speed="13.89" length="276.80" shape="-4.80,286.40 -4.80,9.60"/>
        <lane id="A1A0_2" index="2" speed="13.89" length="276.80" shape="-1.60,286.40 -1.60,9.60"/>
    </edge>
    <edge id="A1A2" from="A1" to="A2" priority="-1">
        <lane id="A1A2_0" index="0" speed="13.89" length="276.80" shape="8.00,313.60 8.00,590.40"/>
        <lane id="A1A2_1" index="1" speed="13.89" length="276.80" shape="4.80,313.60 4.80,590.40"/>
        <lane id="A1A2_2" index="2" speed="13.89" length="276.80" shape="1.60,313.60 1.60,590.40"/>
    </edge>
    <edge id="A1B1" from="A1" to="B1" priority="-1">
        <lane id="A1B1_0" index="0" speed="13.89" length="272.80" shape="13.60,292.00 286.40,292.00"/>
        <lane id="A1B1_1" index="1" speed="13.89" length="272.80" shape="13.60,295.20 286.40,295.20"/>
        <lane id="A1B1_2" index="2" speed="13.89" length="272.80" shape="13.60,298.40 286.40,298.40"/>
    </edge>
    <edge id="A2A1" from="A2" to="A1" priority="-1">
        <lane id="A2A1_0" index="0" speed="13.89" length="276.80" shape="-8.00,590.40 -8.00,313.60"/>
        <lane id="A2A1_1" index="1" speed="13.89" length="276.80" shape="-4.80,590.40 -4.80,313.60"/>
        <lane id="A2A1_2" index="2" speed="13.89" length="276.80" shape="-1.60,590.40 -1.60,313.60"/>
    </edge>
    <edge id="A2B2" from="A2" to="B2" priority="-1">
        <lane id="A2B2_0" index="0" speed="13.89" length="276.80" shape="9.60,592.00 286.40,592.00"/>
        <lane id="A2B2_1" index="1" speed="13.89" length="276.80" shape="9.60,595.20 286.40,595.20"/>
        <lane id="A2B2_2" index="2" speed="13.89" length="276.80" shape="9.60,598.40 286.40,598.40"/>
    </edge>
    <edge id="B0A0" from="B0" to="A0" priority="-1">
        <lane id="B0A0_0" index="0" speed="13.89" length="276.80" shape="286.40,8.00 9.60,8.00"/>
        <lane id="B0A0_1" index="1" speed="13.89" length="276.80" shape="286.40,4.80 9.60,4.80"/>
        <lane id="B0A0_2" index="2" speed="13.89" length="276.80" shape="286.40,1.60 9.60,1.60"/>
    </edge>
    <edge id="B0B1" from="B0" to="B1" priority="-1">
        <lane id="B0B1_0" index="0" speed="13.89" length="272.80" shape="308.00,13.60 308.00,286.40"/>
        <lane id="B0B1_1" index="1" speed="13.89" length="272.80" shape="304.80,13.60 304.80,286.40"/>
        <lane id="B0B1_2" index="2" speed="13.89" length="272.80" shape="301.60,13.60 301.60,286.40"/>
    </edge>
    <edge id="B0C0" from="B0" to="C0" priority="-1">
        <lane id="B0C0_0" index="0" speed="13.89" length="276.80" shape="313.60,-8.00 590.40,-8.00"/>
        <lane id="B0C0_1" index="1" speed="13.89" length="276.80" shape="313.60,-4.80 590.40,-4.80"/>
        <lane id="B0C0_2" index="2" speed="13.89" length="276.80" shape="313.60,-1.60 590.40,-1.60"/>
    </edge>
    <edge id="B1A1" from="B1" to="A1" priority="-1">
        <lane id="B1A1_0" index="0" speed="13.89" length="272.80" shape="286.40,308.00 13.60,308.00"/>
        <lane id="B1A1_1" index="1" speed="13.89" length="272.80" shape="286.40,304.80 13.60,304.80"/>
        <lane id="B1A1_2" index="2" speed="13.89" length="272.80" shape="286.40,301.60 13.60,301.60"/>
    </edge>
    <edge id="B1B0" from="B1" to="B0" priority="-1">
        <lane id="B1B0_0" index="0" speed="13.89" length="272.80" shape="292.00,286.40 292.00,13.60"/>
        <lane id="B1B0_1" index="1" speed="13.89" length="272.80" shape="295.20,286.40 295.20,13.60"/>
        <lane id="B1B0_2" index="2" speed="13.89" length="272.80" shape="298.40,286.40 298.40,13.60"/>
    </edge>
    <edge id="B1B2" from="B1" to="B2" priority="-1">
        <lane id="B1B2_0" index="0" speed="13.89" length="272.80" shape="308.00,313.60 308.00,586.40"/>
        <lane id="B1B2_1" index="1" speed="13.89" length="272.80" shape="304.80,313.60 304.80,586.40"/>
        <lane id="B1B2_2" index="2" speed="13.89" length="272.80" shape="301.60,313.60 301.60,586.40"/>
    </edge>
    <edge id="B1C1" from="B1" to="C1" priority="-1">
        <lane id="B1C1_0" index="0" speed="13.89" length="272.80" shape="313.60,292.00 586.40,292.00"/>
        <lane id="B1C1_1" index="1" speed="13.89" length="272.80" shape="313.60,295.20 586.40,295.20"/>
        <lane id="B1C1_2" index="2" speed="13.89" length="272.80" shape="313.60,298.40 586.40,298.40"/>
    </edge>
    <edge id="B2A2" from="B2" to="A2" priority="-1">
        <lane id="B2A2_0" index="0" speed="13.89" length="276.80" shape="286.40,608.00 9.60,608.00"/>
        <lane id="B2A2_1" index="1" speed="13.89" length="276.80" shape="286.40,604.80 9.60,604.80"/>
        <lane id="B2A2_2" index="2" speed="13.89" length="276.80" shape="286.40,601.60 9.60,601.60"/>
    </edge>
    <edge id="B2B1" from="B2" to="B1" priority="-1">
        <lane id="B2B1_0" index="0" speed="13.89" length="272.80" shape="292.00,586.40 292.00,313.60"/>
        <lane id="B2B1_1" index="1" speed="13.89" length="272.80" shape="295.20,586.40 295.20,313.60"/>
        <lane id="B2B1_2" index="2" speed="13.89" length="272.80" shape="298.40,586.40 298.40,313.60"/>
    </edge>
    <edge id="B2C2" from="B2" to="C2" priority="-1">
        <lane id="B2C2_0" index="0" speed="13.89" length="276.80" shape="313.60,592.00 590.40,592.00"/>
        <lane id="B2C2_1" index="1" speed="13.89" length="276.80" shape="313.60,595.20 590.40,595.20"/>
        <lane id="B2C2_2" index="2" speed="13.89" length="276.80" shape="313.60,598.40 590.40,598.40"/>
    </edge>
    <edge id="C0B0" from="C0" to="B0" priority="-1">
        <lane id="C0B0_0" index="0" speed="13.89" length="276.80" shape="590.40,8.00 313.60,8.00"/>
        <lane id="C0B0_1" index="1" speed="13.89" length="276.80" shape="590.40,4.80 313.60,4.80"/>
        <lane id="C0B0_2" index="2" speed="13.89" length="276.80" shape="590.40,1.60 313.60,1.60"/>
    </edge>
    <edge id="C0C1" from="C0" to="C1" priority="-1">
        <lane id="C0C1_0" index="0" speed="13.89" length="276.80" shape="608.00,9.60 608.00,286.40"/>
        <lane id="C0C1_1" index="1" speed="13.89" length="276.80" shape="604.80,9.60 604.80,286.40"/>
        <lane id="C0C1_2" index="2" speed="13.89" length="276.80" shape="601.60,9.60 601.60,286.40"/>
    </edge>
    <edge id="C1B1" from="C1" to="B1" priority="-1">
        <lane id="C1B1_0" index="0" speed="13.89" length="272.80" shape="586.40,308.00 313.60,308.00"/>
        <lane id="C1B1_1" index="1" speed="13.89" length="272.80" shape="586.40,304.80 313.60,304.80"/>
        <lane id="C1B1_2" index="2" speed="13.89" length="272.80" shape="586.40,301.60 313.60,301.60"/>
    </edge>
    <edge id="C1C0" from="C1" to="C0" priority="-1">
        <lane id="C1C0_0" index="0" speed="13.89" length="276.80" shape="592.00,286.40 592.00,9.60"/>
        <lane id="C1C0_1" index="1" speed="13.89" length="276.80" shape="595.20,286.40 595.20,9.60"/>
        <lane id="C1C0_2" index="2" speed="13.89" length="276.80" shape="598.40,286.40 598.40,9.60"/>
    </edge>
    <edge id="C1C2" from="C1" to="C2" priority="-1">
        <lane id="C1C2_0" index="0" speed="13.89" length="276.80" shape="608.00,313.60 608.00,590.40"/>
        <lane id="C1C2_1" index="1" speed="13.89" length="276.80" shape="604.80,313.60 604.80,590.40"/>
        <lane id="C1C2_2" index="2" speed="13.89" length="276.80" shape="601.60,313.60 601.60,590.40"/>
    </edge>
    <edge id="C2B2" from="C2" to="B2" priority="-1">
        <lane id="C2B2_0" index="0" speed="13.89" length="276.80" shape="590.40,608.00 313.60,608.00"/>
        <lane id="C2B2_1" index="1" speed="13.89" length="276.80" shape="590.40,604.80 313.60,604.80"/>
        <lane id="C2B2_2" index="2" speed="13.89" length="276.80" shape="590.40,601.60 313.60,601.60"/>
    </edge>
    <edge id="C2C1" from="C2" to="C1" priority="-1">